6
terachem gradient in au, energy -78.3462021843, grad_rms 0.004138, grad_max 0.006987 on atom 1
 C      -0.0025889742      -0.0030591394     -0.0057237723
 C      -0.0036580302       0.0014963581      0.0035622795
 H       0.0015130652       0.0004677627      0.0029938070
 H       0.0018107596       0.0010754115     -0.0002143949
 H       0.0020602974       0.0015080099     -0.0003195224
 H       0.0008628819      -0.0014884026     -0.0002983968
