14
terachem gradient in au, energy -249.4137761869, grad_rms 0.016661, grad_max 0.039701 on atom 6
 C      -0.0126205775      -0.0108131979      0.0142595246
 C       0.0206116882       0.0123692788      0.0122788712
 H       0.0043995721      -0.0027842914     -0.0019124208
 H      -0.0000503249       0.0024747916     -0.0057471563
 H       0.0005817231      -0.0012437435      0.0005765838
 C      -0.0314908714      -0.0116920313     -0.0211613740
 C       0.0269642907       0.0080110663     -0.0009695964
 H      -0.0049469563       0.0078167311     -0.0006817501
 H       0.0035781743      -0.0040786021     -0.0017447740
 C      -0.0097634351       0.0006719111      0.0032868393
 H      -0.0000809954      -0.0004831132     -0.0002897845
 N       0.0022711960      -0.0011607860      0.0021008307
 H       0.0004080677       0.0009337575      0.0001922958
 H       0.0001384485      -0.0000217709     -0.0001880894
