6
terachem gradient in au, energy -78.3461989535, grad_rms 0.004138, grad_max 0.006988 on atom 1
 C      -0.0025905224      -0.0030609264     -0.0057229783
 C      -0.0036565832       0.0014983322      0.0035615176
 H       0.0015135430       0.0004684622      0.0029940645
 H       0.0018106446       0.0010752140     -0.0002148553
 H       0.0020602042       0.0015079751     -0.0003198314
 H       0.0008627139      -0.0014890574     -0.0002979171
