%nproc=1
%mem=4gb
%chk=g999.chk
# B3LYP/6-31G force

g09 input

0 1
C    -0.68993816     0.00427852    -0.06009662
C     0.64884174    -0.01867176    -0.05057789
H    -1.15048861     0.98832120    -0.11045763
H    -1.26875888    -0.88143841     0.12589805
H     1.08164510     0.95818585    -0.10453956
H     1.26982846    -0.86355771     0.10667971

