6
terachem gradient in au, energy -78.3462001070, grad_rms 0.004138, grad_max 0.006988 on atom 1
 C      -0.0025895256      -0.0030604752     -0.0057234456
 C      -0.0036573533       0.0014980177      0.0035610771
 H       0.0015134484       0.0004683109      0.0029943413
 H       0.0018105278       0.0010751944     -0.0002146572
 H       0.0020601491       0.0015080595     -0.0003196594
 H       0.0008627537      -0.0014891075     -0.0002976562
